*SPICE MODELS



.MODEL MYPMOS PMOS(LEVEL 1
+TOX=9E-9 GAMMA=0.45 PHI=0.8 NSUB=5E14 LD=0 
+VT0=-0.8 U0= 100 LAMBDA=0.2
+CJ=0.94E-3 MJ=0.5 PB=0.9
+CJSW=0.35E-11 MJSW=0.3 
+CGDO=0.3E-9 JS=0.5E-8)
*
.MODEL MYNMOS NMOS(LEVEL 1
+TOX=9E-9 GAMMA=0.4 PHI=0.9 NSUB=9E14 LD=0 
+VT0=0.7 U0=350 LAMBDA=0.1
+CJ=0.56E-3 MJ=0.45 PB=0.9
+CJSW=0.35E-11 MJSW=0.2 
+CGDO=0.4E-9 JS=1.0E-8)
*

